FoamFile
{
    version 2.0;
    format ascii;
    class dictionary;
    object mechanicalProperties;
}

planeStress no;

mechanical
(
    soil
    {
        type poroMechanicalLaw2;
        pressureFieldName p_rgh;
        biotCoeff biotCoeff [0 0 0 0 0 0 0] 1;
        buoyancy false;
        rho rho [1 -3 0 0 0 0 0] 0;

        effectiveStressMechanicalLaw
        {
            type linearElastic;
            rho rho [1 -3 0 0 0 0 0] 0;
            E E [1 -1 -2 0 0 0 0] 13333333.3333333;
            nu nu [0 0 0 0 0 0 0] 0.333333333333333;
        }
    }
);
